Circuit: * Z:\home\kume\LTspiceXVII\work\step_down_convertor_NJM2360M\NJM2360M.asc

u1:v7: Missing value, assumed 0V @ DC
Direct Newton iteration for .op point succeeded.
Heightened Def Con from 0.000101006 +++to 0.000101006
Heightened Def Con from 0.000101006 +++++++++++++++++++++++++++to 0.00010101

Date: Mon Aug 30 22:40:39 2021
Total elapsed time: 153.432 seconds.

tnom = 27
temp = 27
method = modified trap
totiter = 7763839
traniter = 7763822
tranpoints = 2300587
accept = 1720664
rejected = 579955
matrix size = 44
fillins = 37
solver = Normal
Matrix Compiler1: 3.70 KB object code size  2.1/1.6/[0.6]
Matrix Compiler2: 3.76 KB object code size  0.8/1.4/[0.7]

