Circuit: * C:\Users\10001161562\Documents\LTspiceXVII\DCDC\NJM2360M\DCDC_convertor\NJM2360M.asc

u1:v7: Missing value, assumed 0V @ DC
Direct Newton iteration for .op point succeeded.
Heightened Def Con from 0.000101007 +++++++++++++++++++++++++++to 0.000101011
Heightened Def Con from 0.0107502 to 0.0107502
Heightened Def Con from 0.0430073 to 0.0430073

Date: Mon Aug 30 14:21:52 2021
Total elapsed time: 31.502 seconds.

tnom = 27
temp = 27
method = modified trap
totiter = 4259789
traniter = 4259772
tranpoints = 1217899
accept = 912242
rejected = 305687
matrix size = 44
fillins = 37
solver = Normal
Matrix Compiler1: 3.70 KB object code size  0.7/0.4/[0.2]
Matrix Compiler2: 3.76 KB object code size  0.3/0.4/[0.2]

